Version 4
SHEET 1 2176 984
WIRE 80 -1728 -176 -1728
WIRE 592 -1728 80 -1728
WIRE 768 -1728 592 -1728
WIRE 912 -1696 288 -1696
WIRE 768 -1632 768 -1728
WIRE 320 -1584 128 -1584
WIRE 592 -1584 592 -1728
WIRE 592 -1584 544 -1584
WIRE 320 -1520 224 -1520
WIRE 768 -1520 768 -1552
WIRE 768 -1520 544 -1520
WIRE -176 -1488 -176 -1728
WIRE 288 -1456 288 -1696
WIRE 320 -1456 288 -1456
WIRE 704 -1456 544 -1456
WIRE 912 -1456 912 -1696
WIRE 768 -1408 768 -1520
WIRE 80 -1392 80 -1728
WIRE 320 -1392 80 -1392
WIRE 608 -1392 544 -1392
WIRE 224 -1328 224 -1520
WIRE 704 -1328 704 -1456
WIRE 704 -1328 224 -1328
WIRE 608 -1312 608 -1392
WIRE 704 -1280 704 -1328
WIRE 768 -1280 768 -1328
WIRE 768 -1280 704 -1280
WIRE 768 -1232 768 -1280
WIRE -176 -1168 -176 -1408
WIRE 128 -1168 128 -1584
WIRE 128 -1168 -176 -1168
WIRE 608 -1168 608 -1248
WIRE 608 -1168 128 -1168
WIRE 768 -1168 608 -1168
WIRE 912 -1168 912 -1392
WIRE 912 -1168 768 -1168
WIRE 112 -1056 16 -1056
WIRE 256 -1056 112 -1056
WIRE 720 -1056 256 -1056
WIRE 992 -1056 720 -1056
WIRE 1072 -1056 992 -1056
WIRE 1424 -1056 1072 -1056
WIRE 112 -992 112 -1056
WIRE 256 -992 256 -1056
WIRE 1424 -976 1424 -1056
WIRE 1072 -944 1072 -1056
WIRE 896 -896 864 -896
WIRE 640 -880 592 -880
WIRE 896 -880 896 -896
WIRE 640 -848 640 -880
WIRE 864 -816 864 -896
WIRE 592 -800 592 -880
WIRE 1072 -800 1072 -864
WIRE 1072 -800 896 -800
WIRE 1248 -800 1072 -800
WIRE 16 -784 16 -1056
WIRE 784 -784 624 -784
WIRE 832 -784 784 -784
WIRE 256 -768 256 -912
WIRE 256 -768 48 -768
WIRE 288 -768 256 -768
WIRE 432 -768 368 -768
WIRE 528 -768 496 -768
WIRE 560 -768 528 -768
WIRE 960 -768 896 -768
WIRE -16 -752 -176 -752
WIRE 688 -752 624 -752
WIRE 112 -736 112 -912
WIRE 112 -736 48 -736
WIRE 592 -688 592 -736
WIRE 720 -688 720 -1056
WIRE 720 -688 592 -688
WIRE 864 -672 864 -752
WIRE 992 -672 992 -1056
WIRE 992 -672 864 -672
WIRE 1248 -672 1248 -800
WIRE 1072 -656 1072 -800
WIRE 112 -640 112 -736
WIRE 256 -640 256 -768
WIRE 528 -608 528 -768
WIRE 544 -608 528 -608
WIRE 688 -608 688 -752
WIRE 688 -608 624 -608
WIRE 784 -608 784 -784
WIRE 832 -608 784 -608
WIRE 960 -608 960 -768
WIRE 960 -608 912 -608
WIRE 688 -592 688 -608
WIRE 960 -592 960 -608
WIRE 1248 -528 1248 -608
WIRE 688 -448 688 -512
WIRE 960 -448 960 -512
WIRE 16 -336 16 -720
WIRE 112 -336 112 -560
WIRE 112 -336 16 -336
WIRE 256 -336 256 -576
WIRE 256 -336 112 -336
WIRE 688 -336 688 -384
WIRE 688 -336 256 -336
WIRE 960 -336 960 -384
WIRE 960 -336 688 -336
WIRE 1072 -336 1072 -576
WIRE 1072 -336 960 -336
WIRE 1248 -336 1248 -448
WIRE 1248 -336 1072 -336
WIRE 1424 -336 1424 -896
WIRE 1424 -336 1248 -336
FLAG 128 -1168 0
FLAG 256 -336 0
FLAG 896 -880 0
FLAG 640 -848 0
FLAG -176 -752 out
SYMBOL Misc\\NE555 432 -1488 R0
SYMATTR InstName U1
SYMBOL res 752 -1648 R0
SYMATTR InstName R1
SYMATTR Value 12k
SYMBOL res 752 -1424 R0
SYMATTR InstName R2
SYMATTR Value 12k
SYMBOL cap 592 -1312 R0
SYMATTR InstName C1
SYMATTR Value 0.01µ
SYMBOL cap 752 -1232 R0
SYMATTR InstName C2
SYMATTR Value 1n
SYMBOL res 96 -656 R0
SYMATTR InstName R6
SYMATTR Value 390k
SYMBOL res 96 -1008 R0
SYMATTR InstName R7
SYMATTR Value 470k
SYMBOL res 640 -624 R90
WINDOW 0 0 56 VBottom 2
WINDOW 3 32 56 VTop 2
SYMATTR InstName R10
SYMATTR Value 1Mega
SYMBOL res 928 -624 R90
WINDOW 0 0 56 VBottom 2
WINDOW 3 32 56 VTop 2
SYMATTR InstName R11
SYMATTR Value 1Mega
SYMBOL res 672 -608 R0
SYMATTR InstName R12
SYMATTR Value 12k
SYMBOL cap 672 -448 R0
SYMATTR InstName C6
SYMATTR Value 0.001µ
SYMBOL res 944 -608 R0
SYMATTR InstName R13
SYMATTR Value 12k
SYMBOL cap 944 -448 R0
SYMATTR InstName C7
SYMATTR Value 0.001µ
SYMBOL res 1056 -960 R0
SYMATTR InstName R14
SYMATTR Value 1Mega
SYMBOL res 1056 -672 R0
SYMATTR InstName R15
SYMATTR Value 1Mega
SYMBOL Opamps\\OP777 16 -816 M0
SYMATTR InstName U5
SYMBOL Opamps\\OP777 592 -704 R180
SYMATTR InstName U2
SYMBOL Opamps\\OP777 864 -720 R180
SYMATTR InstName U3
SYMBOL res 384 -784 R90
WINDOW 0 0 56 VBottom 2
WINDOW 3 32 56 VTop 2
SYMATTR InstName R3
SYMATTR Value 270k
SYMBOL diode 432 -752 R270
WINDOW 0 32 32 VTop 2
WINDOW 3 0 32 VBottom 2
SYMATTR InstName D3
SYMATTR Value 1N4148
SYMBOL polcap 240 -640 R0
SYMATTR InstName C3
SYMATTR Value 0.47µ
SYMATTR SpiceLine V=25V
SYMBOL res 240 -1008 R0
SYMATTR InstName R4
SYMATTR Value 4.7Mega
SYMBOL voltage -176 -1504 R0
WINDOW 123 0 0 Left 0
WINDOW 39 0 0 Left 0
SYMATTR InstName V3
SYMATTR Value 3.3
SYMBOL voltage 1424 -992 R0
WINDOW 123 0 0 Left 0
WINDOW 39 0 0 Left 0
SYMATTR InstName V4
SYMATTR Value 3.3
SYMBOL bv 1248 -544 R0
SYMATTR InstName B1
SYMATTR Value V=0.111*(rand(1e8*time)-0.5)
SYMBOL Misc\\xtal 1232 -672 R0
SYMATTR InstName C5
SYMATTR Value 0.12n
SYMATTR SpiceLine V=3.3 Irms=1 Rser=10 Lser=0.17534m Rpar=10n Cpar=0.181n
SYMBOL Misc\\xtal 896 -1456 R0
SYMATTR InstName C8
SYMATTR Value 0.12
SYMATTR SpiceLine V=50 Irms=125m Rser=1.2 Lser=0 Rpar=10n Cpar=0.181n
TEXT -208 -1152 Left 2 !.tran 0.00005
